units           real
atom_style      atomic
atom_modify     map array
boundary        p p p

# define location of atoms
read_data	mw.data
Reading data file ...
  orthogonal box = (0 0 0) to (101.6 101.6 101.6)
  reading atoms ...
  32768 atoms

#Stillinger-Weber potentials defined
#sw must start with '* *'
pair_style      sw
pair_coeff      * * mW.sw mW

velocity	all create 150.0 89653
run		0
Step          Temp          E_pair         E_mol          TotEng         Press
0   150           -281369.95      0             -266719.12      25050.245
Loop time of 4.83166e-06 on 32 procs for 0 steps with 32768 atoms

velocity	all scale 150.0

#dump file for vmd          frames/N
dump		1 all custom 50000 dump.mw1.lammpstrj id mass x y z fx fy fz

#thermo output
thermo_style    custom step elapsed temp density press vol pe ke etotal enthalpy

thermo_modify	lost warn
# shows thermo output every N steps
thermo          1000

# distance in angstroms that that are included as neighbors
neighbor        4.5 bin
neigh_modify    every 1 delay 0 check yes

#fix temp or fix temp/press   tstart/tstop/tdamp    pstart/pstop/pdamp
fix             1 all npt temp 150.0 150.0 100 iso 1.0 1.0 500
#fix             1 all nvt temp 300.0 200.0 25
# femtoseconds
timestep        10.0
run		500000
Step       Elapsed        Temp         Density         Press          Volume         PotEng         KinEng         TotEng        Enthalpy
0           0   150            0.93491614     25050.245      1048772.1     -281369.95      14650.83      -266719.12      116431.02
Averages over the last 251 of 501 rows, steps 250000 to 500000:
Temp Density Press Volume PotEng KinEng TotEng Enthalpy
149.913 0.988518 1.85498 991903 -388720 14642.3 -374078 -374051
Loop time of 1533.02 on 32 procs for 500000 steps with 32768 atoms

write_restart	restart1.mw
System init for write_restart ...

clear
read_restart	restart1.mw
Reading restart file ...
  restart file = 2 Aug 2023, LAMMPS = 2 Aug 2023
  restoring atom style atomic from restart
  orthogonal box = (0.9305236 0.9305236 0.9305236) to (100.66948 100.66948 100.66948)
  pair style sw stores no restart info
  32768 atoms
  read_restart CPU = 0.010 seconds

pair_style      sw
pair_coeff      * * mW.sw mW

fix             1 all npt temp 150.0 273.0 100 iso 1.0 1.0 500
  fix style: npt, fix ID: 1
dump		1 all custom 1000 dump.mw2.lammpstrj id mass x y z fx fy fz

thermo_style    custom step elapsed temp density press vol pe ke etotal enthalpy
thermo          1000
run             1230000
All restart file global fix info was re-assigned
Step       Elapsed        Temp         Density         Press          Volume         PotEng         KinEng         TotEng        Enthalpy
500000           0   149.89783      0.98823304    -18.872189      992189.01     -388803.75      14640.851     -374162.9      -374435.98
Averages over the last 616 of 1231 rows, steps 1115000 to 1730000:
Temp Density Press Volume PotEng KinEng TotEng Enthalpy
242.304 0.981288 1.2471 999214 -378835 23666.3 -355168 -355151
Loop time of 3633 on 32 procs for 1230000 steps with 32768 atoms

write_restart   restart2.mw
System init for write_restart ...

clear
read_restart    restart2.mw
Reading restart file ...
  restart file = 2 Aug 2023, LAMMPS = 2 Aug 2023
  restoring atom style atomic from restart
  orthogonal box = (0.76584966 0.76584966 0.76584966) to (100.83415 100.83415 100.83415)
  pair style sw stores no restart info
  32768 atoms
  read_restart CPU = 0.009 seconds

pair_style      sw
pair_coeff      * * mW.sw mW

neighbor        4.5 bin
neigh_modify    every 1 delay 0 check yes

fix             1 all npt temp 273.0 273.0 100 iso 1.0 1.0 500
  fix style: npt, fix ID: 1
dump            1 all custom 10000 dump.mw3.lammpstrj id mass x y z fx fy fz

thermo_style    custom step elapsed temp density press vol pe ke etotal enthalpy
thermo          1000
run             500000
All restart file global fix info was re-assigned
Step       Elapsed        Temp         Density         Press          Volume         PotEng         KinEng         TotEng        Enthalpy
1730000           0   272.85097      0.97850761    -22.881646      1002050.4     -375291.78      26649.955     -348641.82     -348976.21
Averages over the last 251 of 501 rows, steps 1980000 to 2230000:
Temp Density Press Volume PotEng KinEng TotEng Enthalpy
273.007 0.97854 -0.380435 1.00202e+06 -375280 26665.1 -348615 -348621
Loop time of 1606.55 on 32 procs for 500000 steps with 32768 atoms

write_restart   restart3.mw
System init for write_restart ...

clear
read_restart    restart3.mw
Reading restart file ...
  restart file = 2 Aug 2023, LAMMPS = 2 Aug 2023
  restoring atom style atomic from restart
  orthogonal box = (0.75976718 0.75976718 0.75976718) to (100.84023 100.84023 100.84023)
  pair style sw stores no restart info
  32768 atoms
  read_restart CPU = 0.009 seconds

pair_style      sw
pair_coeff      * * mW.sw mW

neighbor        4.5 bin
neigh_modify    every 1 delay 0 check yes

fix             1 all npt temp 273.0 150.0 100 iso 1.0 1.0 500
  fix style: npt, fix ID: 1
dump            1 all custom 1000 dump.mw4.lammpstrj id mass x y z fx fy fz

thermo_style    custom step elapsed temp density press vol pe ke etotal enthalpy
thermo          1000
run             1230000
All restart file global fix info was re-assigned
Step       Elapsed        Temp         Density         Press          Volume         PotEng         KinEng         TotEng        Enthalpy
2230000           0   271.81993      0.97815083    -48.063004      1002415.9     -375537.71      26549.251     -348988.46     -349691.1
Averages over the last 616 of 1231 rows, steps 2845000 to 3460000:
Temp Density Press Volume PotEng KinEng TotEng Enthalpy
180.773 0.98653 -0.0415545 993905 -386334 17656.5 -368678 -368679
Loop time of 3792 on 32 procs for 1230000 steps with 32768 atoms

write_restart   restart4.mw
System init for write_restart ...

clear
read_restart    restart4.mw
Reading restart file ...
  restart file = 2 Aug 2023, LAMMPS = 2 Aug 2023
  restoring atom style atomic from restart
  orthogonal box = (0.94917316 0.94917316 0.94917316) to (100.65083 100.65083 100.65083)
  pair style sw stores no restart info
  32768 atoms
  read_restart CPU = 0.009 seconds

pair_style      sw
pair_coeff      * * mW.sw mW

neighbor        4.5 bin
neigh_modify    every 1 delay 0 check yes

fix             1 all npt temp 150.0 150.0 100 iso 1.0 1.0 500
  fix style: npt, fix ID: 1
dump            1 all custom 10000 dump.mw5.lammpstrj id mass x y z fx fy fz

thermo_style    custom step elapsed temp density press vol pe ke etotal enthalpy
thermo          1000
run             500000
All restart file global fix info was re-assigned
Step       Elapsed        Temp         Density         Press          Volume         PotEng         KinEng         TotEng        Enthalpy
3460000           0   150.07961      0.98934257     15.241722      991076.29     -389887.68      14658.606     -375229.07     -375008.77
Averages over the last 251 of 501 rows, steps 3710000 to 3960000:
Temp Density Press Volume PotEng KinEng TotEng Enthalpy
150.003 0.989081 -1.65353 991338 -389828 14651.1 -375177 -375201
Loop time of 1468.11 on 32 procs for 500000 steps with 32768 atoms

write_data mw-explicit.data nocoeff
System init for write_data ...
